<?xml version="1.0" encoding="UTF-8"?>


<routes>
   <vType id="carro" vClass="passenger"/>
   <vType id="taxi" vClass="taxi"/>
   <vType id="caminhao" vClass="truck"/>
   <vType id="moto" vClass="motorcycle"/>
   <vType id="onibus" vClass="bus"/>


   <route id="rota1" edges="gneE0 gneE1"/>
   <route id="rota2" edges="gneE0 gneE10"/>
   <route id="rota3" edges="gneE2 gneE8"/>
   <route id="rota4" edges="gneE11 gneE8"/>
   <route id="rota5" edges="gneE11 gneE1"/>
   <route id="rota6" edges="gneE9 gneE8"/>
   <route id="rota7" edges="gneE9 gneE1"/>
   <route id="rota8" edges="gneE9 gneE10"/>

   <flow id="flow1_rota1" begin="0" end="2400" vehsPerHour="558" type="carro" route="rota1" departSpeed="max"/>
   <flow id="flow2_rota1" begin="0" end="2400" vehsPerHour="310" type="moto" route="rota1" departSpeed="max"/>
   <flow id="flow3_rota1" begin="0" end="2400" vehsPerHour="31" type="caminhao" route="rota1" departSpeed="max"/>
   <flow id="flow4_rota1" begin="0" end="2400" vehsPerHour="117.8" type="onibus" route="rota1" departSpeed="max"/>

   <flow id="flow1_rota2" begin="0" end="2400" vehsPerHour="111.6" type="carro" route="rota2" departSpeed="max"/>
   <flow id="flow2_rota2" begin="0" end="2400" vehsPerHour="31" type="moto" route="rota2" departSpeed="max"/>
   <flow id="flow3_rota2" begin="0" end="2400" vehsPerHour="6.2" type="caminhao" route="rota2" departSpeed="max"/>

   <flow id="flow1_rota3" begin="0" end="2400" vehsPerHour="558" type="carro" route="rota3" departSpeed="max"/>
   <flow id="flow2_rota3" begin="0" end="2400" vehsPerHour="310" type="moto" route="rota3" departSpeed="max"/>
   <flow id="flow3_rota3" begin="0" end="2400" vehsPerHour="31" type="caminhao" route="rota3" departSpeed="max"/>
   <flow id="flow4_rota3" begin="0" end="2400" vehsPerHour="117.8" type="onibus" route="rota3" departSpeed="max"/>

   <flow id="flow1_rota4" begin="0" end="2400" vehsPerHour="62" type="carro" route="rota4" departSpeed="max"/>
   <flow id="flow2_rota4" begin="0" end="2400" vehsPerHour="12.4" type="moto" route="rota4" departSpeed="max"/>
   <flow id="flow3_rota4" begin="0" end="2400" vehsPerHour="6.2" type="caminhao" route="rota4" departSpeed="max"/>


   <flow id="flow1_rota5" begin="0" end="2400" vehsPerHour="62" type="carro" route="rota5" departSpeed="max"/>
   <flow id="flow2_rota5" begin="0" end="2400" vehsPerHour="12.4" type="moto" route="rota5" departSpeed="max"/>
   <flow id="flow3_rota5" begin="0" end="2400" vehsPerHour="6.2" type="caminhao" route="rota5" departSpeed="max"/>


   <flow id="flow1_rota6" begin="0" end="2400" vehsPerHour="74.4" type="carro" route="rota6" departSpeed="max"/>
   <flow id="flow2_rota6" begin="0" end="2400" vehsPerHour="24.8" type="moto" route="rota6" departSpeed="max"/>
   <flow id="flow3_rota6" begin="0" end="2400" vehsPerHour="12.4" type="caminhao" route="rota6" departSpeed="max"/>

   <flow id="flow1_rota7" begin="0" end="2400" vehsPerHour="86.8" type="carro" route="rota7" departSpeed="max"/>
   <flow id="flow2_rota7" begin="0" end="2400" vehsPerHour="49.6" type="moto" route="rota7" departSpeed="max"/>
   <flow id="flow3_rota7" begin="0" end="2400" vehsPerHour="18.6" type="caminhao" route="rota7" departSpeed="max"/>
   <flow id="flow4_rota7" begin="0" end="2400" vehsPerHour="31" type="onibus" route="rota7" departSpeed="max"/>

   <flow id="flow1_rota8" begin="0" end="2400" vehsPerHour="49.6" type="carro" route="rota8" departSpeed="max"/>
   <flow id="flow2_rota8" begin="0" end="2400" vehsPerHour="12.4" type="moto" route="rota8" departSpeed="max"/>
   <flow id="flow3_rota8" begin="0" end="2400" vehsPerHour="3.1" type="caminhao" route="rota8" departSpeed="max"/>

</routes>